Circuit: ** Spice Revision Log

Fatal Error: No analysis request found.
